116262
  -OEChem-02292422592D

 15 15  0     0  0  0  0  0  0999 V2000
    2.0544   -0.3765    0.0000 O   0  0  0  0  0  0  0  0  0  0  0  0
    4.5576   -1.3244    0.0000 N   0  0  0  0  0  0  0  0  0  0  0  0
    5.0576    0.2145    0.0000 N   0  0  0  0  0  0  0  0  0  0  0  0
    2.5896   -2.0238    0.0000 N   0  0  0  0  0  0  0  0  0  0  0  0
    3.4699    1.0235    0.0000 N   0  0  0  0  0  0  0  0  0  0  0  0
    3.8766    1.9370    0.0000 N   0  0  0  0  0  0  0  0  0  0  0  0
    3.7486   -0.7366    0.0000 C   0  0  0  0  0  0  0  0  0  0  0  0
    4.0576    0.2145    0.0000 C   0  0  0  0  0  0  0  0  0  0  0  0
    5.3667   -0.7366    0.0000 C   0  0  0  0  0  0  0  0  0  0  0  0
    2.7976   -1.0456    0.0000 C   0  0  0  0  0  0  0  0  0  0  0  0
    4.5576   -1.9444    0.0000 H   0  0  0  0  0  0  0  0  0  0  0  0
    5.9563   -0.9282    0.0000 H   0  0  0  0  0  0  0  0  0  0  0  0
    2.0000   -2.2154    0.0000 H   0  0  0  0  0  0  0  0  0  0  0  0
    3.0504   -2.4386    0.0000 H   0  0  0  0  0  0  0  0  0  0  0  0
    3.5122    2.4386    0.0000 H   0  0  0  0  0  0  0  0  0  0  0  0
  1 10  2  0  0  0  0
  2  7  1  0  0  0  0
  2  9  1  0  0  0  0
  2 11  1  0  0  0  0
  3  8  1  0  0  0  0
  3  9  2  0  0  0  0
  4 10  1  0  0  0  0
  4 13  1  0  0  0  0
  4 14  1  0  0  0  0
  5  6  2  0  0  0  0
  5  8  1  0  0  0  0
  6 15  1  0  0  0  0
  7  8  2  0  0  0  0
  7 10  1  0  0  0  0
  9 12  1  0  0  0  0
M  END
> <PUBCHEM_COMPOUND_CID>
116262

> <PUBCHEM_COMPOUND_CANONICALIZED>
1

> <PUBCHEM_CACTVS_COMPLEXITY>
158

> <PUBCHEM_CACTVS_HBOND_ACCEPTOR>
4

> <PUBCHEM_CACTVS_HBOND_DONOR>
3

> <PUBCHEM_CACTVS_ROTATABLE_BOND>
2

> <PUBCHEM_CACTVS_SUBSKEYS>
AAADcYBjoAAAAAAAAAAAAAAAAAAAAWAAAAAAAAAAAAAAAAABgAAAHgAYAAAACAgBlgQFsBbLkACqAQdxdACAgC2XEKABUYGoVECASAhASCAUAIAIAAJAAGAAAAAAAAAAAAAAAAAAAAAAAAAAAAAAAAAAAA==

> <PUBCHEM_IUPAC_OPENEYE_NAME>
4-diazenyl-1H-imidazole-5-carboxamide

> <PUBCHEM_IUPAC_CAS_NAME>
4-diazenyl-1H-imidazole-5-carboxamide

> <PUBCHEM_IUPAC_NAME_MARKUP>
4-diazenyl-1<I>H</I>-imidazole-5-carboxamide

> <PUBCHEM_IUPAC_NAME>
4-diazenyl-1H-imidazole-5-carboxamide

> <PUBCHEM_IUPAC_SYSTEMATIC_NAME>
4-diazenyl-1H-imidazole-5-carboxamide

> <PUBCHEM_IUPAC_TRADITIONAL_NAME>
4-diazenyl-1H-imidazole-5-carboxamide

> <PUBCHEM_IUPAC_INCHI>
InChI=1S/C4H5N5O/c5-3(10)2-4(9-6)8-1-7-2/h1,6H,(H2,5,10)(H,7,8)

> <PUBCHEM_IUPAC_INCHIKEY>
IRJLFDHRTDDHFP-UHFFFAOYSA-N

> <PUBCHEM_XLOGP3>
0.3

> <PUBCHEM_EXACT_MASS>
139.04940980

> <PUBCHEM_MOLECULAR_FORMULA>
C4H5N5O

> <PUBCHEM_MOLECULAR_WEIGHT>
139.12

> <PUBCHEM_OPENEYE_CAN_SMILES>
C1=NC(=C(N1)C(=O)N)N=N

> <PUBCHEM_OPENEYE_ISO_SMILES>
C1=NC(=C(N1)C(=O)N)N=N

> <PUBCHEM_CACTVS_TPSA>
108

> <PUBCHEM_MONOISOTOPIC_WEIGHT>
139.04940980

> <PUBCHEM_TOTAL_CHARGE>
0

> <PUBCHEM_HEAVY_ATOM_COUNT>
10

> <PUBCHEM_ATOM_DEF_STEREO_COUNT>
0

> <PUBCHEM_ATOM_UDEF_STEREO_COUNT>
0

> <PUBCHEM_BOND_DEF_STEREO_COUNT>
0

> <PUBCHEM_BOND_UDEF_STEREO_COUNT>
0

> <PUBCHEM_ISOTOPIC_ATOM_COUNT>
0

> <PUBCHEM_COMPONENT_COUNT>
1

> <PUBCHEM_CACTVS_TAUTO_COUNT>
-1

> <PUBCHEM_COORDINATE_TYPE>
1
5
255

> <PUBCHEM_BONDANNOTATIONS>
2  7  8
2  9  8
3  8  8
3  9  8
7  8  8

$$$$
