129665671
  -OEChem-02292422592D

 17 18  0     0  0  0  0  0  0999 V2000
    4.2690    1.8450    0.0000 S   0  0  0  0  0  0  0  0  0  0  0  0
    4.2690   -2.1550    0.0000 O   0  0  0  0  0  0  0  0  0  0  0  0
    4.2690    0.8450    0.0000 N   0  0  0  0  0  0  0  0  0  0  0  0
    6.0812   -0.9597    0.0000 N   0  0  0  0  0  0  0  0  0  0  0  0
    6.0812    0.6497    0.0000 N   0  0  0  0  0  0  0  0  0  0  0  0
    3.4030   -0.6550    0.0000 N   0  0  0  0  0  0  0  0  0  0  0  0
    2.5369    0.8450    0.0000 N   0  0  0  0  0  0  0  0  0  0  0  0
    5.1350   -0.6550    0.0000 C   0  0  0  0  0  0  0  0  0  0  0  0
    5.1350    0.3450    0.0000 C   0  0  0  0  0  0  0  0  0  0  0  0
    3.4030    0.3450    0.0000 C   0  0  0  0  0  0  0  0  0  0  0  0
    4.2690   -1.1550    0.0000 C   0  0  0  0  0  0  0  0  0  0  0  0
    6.6648   -0.1550    0.0000 C   0  0  0  0  0  0  0  0  0  0  0  0
    6.2738   -1.5490    0.0000 H   0  0  0  0  0  0  0  0  0  0  0  0
    7.2848   -0.1550    0.0000 H   0  0  0  0  0  0  0  0  0  0  0  0
    2.0000    0.5350    0.0000 H   0  0  0  0  0  0  0  0  0  0  0  0
    2.5369    1.4650    0.0000 H   0  0  0  0  0  0  0  0  0  0  0  0
    4.8059    2.1550    0.0000 H   0  0  0  0  0  0  0  0  0  0  0  0
  1  3  1  0  0  0  0
  1 17  1  0  0  0  0
  2 11  2  0  0  0  0
  3  9  1  0  0  0  0
  3 10  1  0  0  0  0
  4  8  1  0  0  0  0
  4 12  1  0  0  0  0
  4 13  1  0  0  0  0
  5  9  1  0  0  0  0
  5 12  2  0  0  0  0
  6 10  2  0  0  0  0
  6 11  1  0  0  0  0
  7 10  1  0  0  0  0
  7 15  1  0  0  0  0
  7 16  1  0  0  0  0
  8  9  2  0  0  0  0
  8 11  1  0  0  0  0
 12 14  1  0  0  0  0
M  END
> <PUBCHEM_COMPOUND_CID>
129665671

> <PUBCHEM_COMPOUND_CANONICALIZED>
1

> <PUBCHEM_CACTVS_COMPLEXITY>
254

> <PUBCHEM_CACTVS_HBOND_ACCEPTOR>
3

> <PUBCHEM_CACTVS_HBOND_DONOR>
3

> <PUBCHEM_CACTVS_ROTATABLE_BOND>
0

> <PUBCHEM_CACTVS_SUBSKEYS>
AAADcYBjoABAAAAAAAAAAAAAAAAAAWAAAAAgAAAAAAAAAEABgAAAHgAQQAAACAgBlgQFsBbJkACoAQdxdACAgC2XEKABUYGoVECASAhASCAUAIAIAAJAAGAAAAAAAAAAAAAAAAAAAAAAAAAAAAAAAAAAAA==

> <PUBCHEM_IUPAC_OPENEYE_NAME>
2-amino-3-sulfanyl-7H-purin-6-one

> <PUBCHEM_IUPAC_CAS_NAME>
2-amino-3-mercapto-7H-purin-6-one

> <PUBCHEM_IUPAC_NAME_MARKUP>
2-amino-3-sulfanyl-7<I>H</I>-purin-6-one

> <PUBCHEM_IUPAC_NAME>
2-amino-3-sulfanyl-7H-purin-6-one

> <PUBCHEM_IUPAC_SYSTEMATIC_NAME>
2-azanyl-3-sulfanyl-7H-purin-6-one

> <PUBCHEM_IUPAC_TRADITIONAL_NAME>
2-amino-3-mercapto-7H-purin-6-one

> <PUBCHEM_IUPAC_INCHI>
InChI=1S/C5H5N5OS/c6-5-9-4(11)2-3(10(5)12)8-1-7-2/h1,12H,(H,7,8)(H2,6,9,11)

> <PUBCHEM_IUPAC_INCHIKEY>
FGULZVGKWNHAKA-UHFFFAOYSA-N

> <PUBCHEM_XLOGP3_AA>
-0.4

> <PUBCHEM_EXACT_MASS>
183.02148097

> <PUBCHEM_MOLECULAR_FORMULA>
C5H5N5OS

> <PUBCHEM_MOLECULAR_WEIGHT>
183.19

> <PUBCHEM_OPENEYE_CAN_SMILES>
C1=NC2=C(N1)C(=O)N=C(N2S)N

> <PUBCHEM_OPENEYE_ISO_SMILES>
C1=NC2=C(N1)C(=O)N=C(N2S)N

> <PUBCHEM_CACTVS_TPSA>
88.4

> <PUBCHEM_MONOISOTOPIC_WEIGHT>
183.02148097

> <PUBCHEM_TOTAL_CHARGE>
0

> <PUBCHEM_HEAVY_ATOM_COUNT>
12

> <PUBCHEM_ATOM_DEF_STEREO_COUNT>
0

> <PUBCHEM_ATOM_UDEF_STEREO_COUNT>
0

> <PUBCHEM_BOND_DEF_STEREO_COUNT>
0

> <PUBCHEM_BOND_UDEF_STEREO_COUNT>
0

> <PUBCHEM_ISOTOPIC_ATOM_COUNT>
0

> <PUBCHEM_COMPONENT_COUNT>
1

> <PUBCHEM_CACTVS_TAUTO_COUNT>
-1

> <PUBCHEM_COORDINATE_TYPE>
1
5
255

> <PUBCHEM_BONDANNOTATIONS>
3  10  8
3  9  8
4  12  8
4  8  8
5  12  8
5  9  8
6  10  8
6  11  8
8  11  8
8  9  8

$$$$
