135421879
  -OEChem-02292422582D

 16 17  0     0  0  0  0  0  0999 V2000
    3.4030    1.5000    0.0000 O   0  0  0  0  0  0  0  0  0  0  0  0
    5.2152    0.3047    0.0000 N   0  0  0  0  0  0  0  0  0  0  0  0
    5.2152   -1.3047    0.0000 N   0  0  0  0  0  0  0  0  0  0  0  0
    2.5369   -0.0000    0.0000 N   0  0  0  0  0  0  0  0  0  0  0  0
    3.4030   -1.5000    0.0000 N   0  0  0  0  0  0  0  0  0  0  0  0
    6.7988   -0.5000    0.0000 N   0  0  0  0  0  0  0  0  0  0  0  0
    4.2690   -0.0000    0.0000 C   0  0  0  0  0  0  0  0  0  0  0  0
    4.2690   -1.0000    0.0000 C   0  0  0  0  0  0  0  0  0  0  0  0
    5.7988   -0.5000    0.0000 C   0  0  0  0  0  0  0  0  0  0  0  0
    3.4030    0.5000    0.0000 C   0  0  0  0  0  0  0  0  0  0  0  0
    2.5369   -1.0000    0.0000 C   0  0  0  0  0  0  0  0  0  0  0  0
    5.4078    0.8941    0.0000 H   0  0  0  0  0  0  0  0  0  0  0  0
    2.0000    0.3100    0.0000 H   0  0  0  0  0  0  0  0  0  0  0  0
    2.0000   -1.3100    0.0000 H   0  0  0  0  0  0  0  0  0  0  0  0
    7.1088   -1.0369    0.0000 H   0  0  0  0  0  0  0  0  0  0  0  0
    7.1088    0.0369    0.0000 H   0  0  0  0  0  0  0  0  0  0  0  0
  1 10  2  0  0  0  0
  2  7  1  0  0  0  0
  2  9  1  0  0  0  0
  2 12  1  0  0  0  0
  3  8  1  0  0  0  0
  3  9  2  0  0  0  0
  4 10  1  0  0  0  0
  4 11  1  0  0  0  0
  4 13  1  0  0  0  0
  5  8  1  0  0  0  0
  5 11  2  0  0  0  0
  6  9  1  0  0  0  0
  6 15  1  0  0  0  0
  6 16  1  0  0  0  0
  7  8  2  0  0  0  0
  7 10  1  0  0  0  0
 11 14  1  0  0  0  0
M  END
> <PUBCHEM_COMPOUND_CID>
135421879

> <PUBCHEM_COMPOUND_CANONICALIZED>
1

> <PUBCHEM_CACTVS_COMPLEXITY>
215

> <PUBCHEM_CACTVS_HBOND_ACCEPTOR>
4

> <PUBCHEM_CACTVS_HBOND_DONOR>
3

> <PUBCHEM_CACTVS_ROTATABLE_BOND>
0

> <PUBCHEM_CACTVS_SUBSKEYS>
AAADcYBjoAAAAAAAAAAAAAAAAAAAAWAAAAAgAAAAAAAAAEABgAAAHgAQAAAACAgBlgQBsBbJkACoAQdxdACAgC2HEKABEYGoVECASAhASCAUAIgIAgJAAGAAAAAAAAAAAAAAAAAAAAAAAAAAAAAAAAAAAA==

> <PUBCHEM_IUPAC_OPENEYE_NAME>
8-amino-1,7-dihydropurin-6-one

> <PUBCHEM_IUPAC_CAS_NAME>
8-amino-1,7-dihydropurin-6-one

> <PUBCHEM_IUPAC_NAME_MARKUP>
8-amino-1,7-dihydropurin-6-one

> <PUBCHEM_IUPAC_NAME>
8-amino-1,7-dihydropurin-6-one

> <PUBCHEM_IUPAC_SYSTEMATIC_NAME>
8-azanyl-1,7-dihydropurin-6-one

> <PUBCHEM_IUPAC_TRADITIONAL_NAME>
8-amino-7H-hypoxanthine

> <PUBCHEM_IUPAC_INCHI>
InChI=1S/C5H5N5O/c6-5-9-2-3(10-5)7-1-8-4(2)11/h1H,(H4,6,7,8,9,10,11)

> <PUBCHEM_IUPAC_INCHIKEY>
NVDXOOZGKFFGDJ-UHFFFAOYSA-N

> <PUBCHEM_XLOGP3_AA>
-0.8

> <PUBCHEM_EXACT_MASS>
151.04940980

> <PUBCHEM_MOLECULAR_FORMULA>
C5H5N5O

> <PUBCHEM_MOLECULAR_WEIGHT>
151.13

> <PUBCHEM_OPENEYE_CAN_SMILES>
C1=NC2=C(C(=O)N1)NC(=N2)N

> <PUBCHEM_OPENEYE_ISO_SMILES>
C1=NC2=C(C(=O)N1)NC(=N2)N

> <PUBCHEM_CACTVS_TPSA>
96.2

> <PUBCHEM_MONOISOTOPIC_WEIGHT>
151.04940980

> <PUBCHEM_TOTAL_CHARGE>
0

> <PUBCHEM_HEAVY_ATOM_COUNT>
11

> <PUBCHEM_ATOM_DEF_STEREO_COUNT>
0

> <PUBCHEM_ATOM_UDEF_STEREO_COUNT>
0

> <PUBCHEM_BOND_DEF_STEREO_COUNT>
0

> <PUBCHEM_BOND_UDEF_STEREO_COUNT>
0

> <PUBCHEM_ISOTOPIC_ATOM_COUNT>
0

> <PUBCHEM_COMPONENT_COUNT>
1

> <PUBCHEM_CACTVS_TAUTO_COUNT>
22

> <PUBCHEM_COORDINATE_TYPE>
1
5
255

> <PUBCHEM_BONDANNOTATIONS>
2  7  8
2  9  8
3  8  8
3  9  8
4  10  8
4  11  8
5  11  8
5  8  8
7  10  8
7  8  8

$$$$
