135426867
  -OEChem-02292422582D

 19 20  0     0  0  0  0  0  0999 V2000
    4.2690    2.0000    0.0000 O   0  0  0  0  0  0  0  0  0  0  0  0
    3.4030    0.5000    0.0000 N   0  0  0  0  0  0  0  0  0  0  0  0
    6.0812    0.8047    0.0000 N   0  0  0  0  0  0  0  0  0  0  0  0
    4.2690   -1.0000    0.0000 N   0  0  0  0  0  0  0  0  0  0  0  0
    2.5369   -1.0000    0.0000 N   0  0  0  0  0  0  0  0  0  0  0  0
    6.0812   -0.8047    0.0000 N   0  0  0  0  0  0  0  0  0  0  0  0
    5.1350    0.5000    0.0000 C   0  0  0  0  0  0  0  0  0  0  0  0
    5.1350   -0.5000    0.0000 C   0  0  0  0  0  0  0  0  0  0  0  0
    3.4030   -0.5000    0.0000 C   0  0  0  0  0  0  0  0  0  0  0  0
    4.2690    1.0000    0.0000 C   0  0  0  0  0  0  0  0  0  0  0  0
    6.6648    0.0000    0.0000 C   0  0  0  0  0  0  0  0  0  0  0  0
    2.5369   -2.0000    0.0000 C   0  0  0  0  0  0  0  0  0  0  0  0
    2.8660    0.8100    0.0000 H   0  0  0  0  0  0  0  0  0  0  0  0
    6.2738    1.3940    0.0000 H   0  0  0  0  0  0  0  0  0  0  0  0
    2.0000   -0.6900    0.0000 H   0  0  0  0  0  0  0  0  0  0  0  0
    7.2848    0.0000    0.0000 H   0  0  0  0  0  0  0  0  0  0  0  0
    1.9169   -2.0000    0.0000 H   0  0  0  0  0  0  0  0  0  0  0  0
    2.5369   -2.6200    0.0000 H   0  0  0  0  0  0  0  0  0  0  0  0
    3.1569   -2.0000    0.0000 H   0  0  0  0  0  0  0  0  0  0  0  0
  1 10  2  0  0  0  0
  2  9  1  0  0  0  0
  2 10  1  0  0  0  0
  2 13  1  0  0  0  0
  3  7  1  0  0  0  0
  3 11  1  0  0  0  0
  3 14  1  0  0  0  0
  4  8  1  0  0  0  0
  4  9  2  0  0  0  0
  5  9  1  0  0  0  0
  5 12  1  0  0  0  0
  5 15  1  0  0  0  0
  6  8  1  0  0  0  0
  6 11  2  0  0  0  0
  7  8  2  0  0  0  0
  7 10  1  0  0  0  0
 11 16  1  0  0  0  0
 12 17  1  0  0  0  0
 12 18  1  0  0  0  0
 12 19  1  0  0  0  0
M  END
> <PUBCHEM_COMPOUND_CID>
135426867

> <PUBCHEM_COMPOUND_CANONICALIZED>
1

> <PUBCHEM_CACTVS_COMPLEXITY>
238

> <PUBCHEM_CACTVS_HBOND_ACCEPTOR>
3

> <PUBCHEM_CACTVS_HBOND_DONOR>
3

> <PUBCHEM_CACTVS_ROTATABLE_BOND>
1

> <PUBCHEM_CACTVS_SUBSKEYS>
AAADcYBjoAAAAAAAAAAAAAAAAAAAAWAAAAAgAAAAAAAAAEABgAAAHgAQAAAACAgBlgQHsBbJkACoAQdxdACAgC2XEKABUYGoVECASAhASCAUAIgIAQJAAGAAAAAAAAAAAAAAAAAAAAAAAAAAAAAAAAAAAA==

> <PUBCHEM_IUPAC_OPENEYE_NAME>
2-(methylamino)-1,7-dihydropurin-6-one

> <PUBCHEM_IUPAC_CAS_NAME>
2-(methylamino)-1,7-dihydropurin-6-one

> <PUBCHEM_IUPAC_NAME_MARKUP>
2-(methylamino)-1,7-dihydropurin-6-one

> <PUBCHEM_IUPAC_NAME>
2-(methylamino)-1,7-dihydropurin-6-one

> <PUBCHEM_IUPAC_SYSTEMATIC_NAME>
2-(methylamino)-1,7-dihydropurin-6-one

> <PUBCHEM_IUPAC_TRADITIONAL_NAME>
2-(methylamino)-7H-hypoxanthine

> <PUBCHEM_IUPAC_INCHI>
InChI=1S/C6H7N5O/c1-7-6-10-4-3(5(12)11-6)8-2-9-4/h2H,1H3,(H3,7,8,9,10,11,12)

> <PUBCHEM_IUPAC_INCHIKEY>
SGSSKEDGVONRGC-UHFFFAOYSA-N

> <PUBCHEM_XLOGP3_AA>
-0.7

> <PUBCHEM_EXACT_MASS>
165.06505986

> <PUBCHEM_MOLECULAR_FORMULA>
C6H7N5O

> <PUBCHEM_MOLECULAR_WEIGHT>
165.15

> <PUBCHEM_OPENEYE_CAN_SMILES>
CNC1=NC2=C(C(=O)N1)NC=N2

> <PUBCHEM_OPENEYE_ISO_SMILES>
CNC1=NC2=C(C(=O)N1)NC=N2

> <PUBCHEM_CACTVS_TPSA>
82.2

> <PUBCHEM_MONOISOTOPIC_WEIGHT>
165.06505986

> <PUBCHEM_TOTAL_CHARGE>
0

> <PUBCHEM_HEAVY_ATOM_COUNT>
12

> <PUBCHEM_ATOM_DEF_STEREO_COUNT>
0

> <PUBCHEM_ATOM_UDEF_STEREO_COUNT>
0

> <PUBCHEM_BOND_DEF_STEREO_COUNT>
0

> <PUBCHEM_BOND_UDEF_STEREO_COUNT>
0

> <PUBCHEM_ISOTOPIC_ATOM_COUNT>
0

> <PUBCHEM_COMPONENT_COUNT>
1

> <PUBCHEM_CACTVS_TAUTO_COUNT>
-1

> <PUBCHEM_COORDINATE_TYPE>
1
5
255

> <PUBCHEM_BONDANNOTATIONS>
2  10  8
2  9  8
3  11  8
3  7  8
4  8  8
4  9  8
6  11  8
6  8  8
7  10  8
7  8  8

$$$$
