136335066
  -OEChem-02292422592D

 17 18  0     0  0  0  0  0  0999 V2000
    2.5369   -1.8450    0.0000 S   0  0  0  0  0  0  0  0  0  0  0  0
    4.2690    2.1550    0.0000 O   0  0  0  0  0  0  0  0  0  0  0  0
    6.0812    0.9597    0.0000 N   0  0  0  0  0  0  0  0  0  0  0  0
    3.4030    0.6550    0.0000 N   0  0  0  0  0  0  0  0  0  0  0  0
    4.2690   -0.8450    0.0000 N   0  0  0  0  0  0  0  0  0  0  0  0
    6.0812   -0.6497    0.0000 N   0  0  0  0  0  0  0  0  0  0  0  0
    2.5369   -0.8450    0.0000 N   0  0  0  0  0  0  0  0  0  0  0  0
    5.1350    0.6550    0.0000 C   0  0  0  0  0  0  0  0  0  0  0  0
    5.1350   -0.3450    0.0000 C   0  0  0  0  0  0  0  0  0  0  0  0
    4.2690    1.1550    0.0000 C   0  0  0  0  0  0  0  0  0  0  0  0
    3.4030   -0.3450    0.0000 C   0  0  0  0  0  0  0  0  0  0  0  0
    6.6648    0.1550    0.0000 C   0  0  0  0  0  0  0  0  0  0  0  0
    2.8660    0.9650    0.0000 H   0  0  0  0  0  0  0  0  0  0  0  0
    6.2738    1.5490    0.0000 H   0  0  0  0  0  0  0  0  0  0  0  0
    7.2848    0.1550    0.0000 H   0  0  0  0  0  0  0  0  0  0  0  0
    2.0000   -0.5350    0.0000 H   0  0  0  0  0  0  0  0  0  0  0  0
    2.0000   -2.1550    0.0000 H   0  0  0  0  0  0  0  0  0  0  0  0
  1  7  1  0  0  0  0
  1 17  1  0  0  0  0
  2 10  2  0  0  0  0
  3  8  1  0  0  0  0
  3 12  1  0  0  0  0
  3 14  1  0  0  0  0
  4 10  1  0  0  0  0
  4 11  1  0  0  0  0
  4 13  1  0  0  0  0
  5  9  1  0  0  0  0
  5 11  2  0  0  0  0
  6  9  1  0  0  0  0
  6 12  2  0  0  0  0
  7 11  1  0  0  0  0
  7 16  1  0  0  0  0
  8  9  2  0  0  0  0
  8 10  1  0  0  0  0
 12 15  1  0  0  0  0
M  END
> <PUBCHEM_COMPOUND_CID>
136335066

> <PUBCHEM_COMPOUND_CANONICALIZED>
1

> <PUBCHEM_CACTVS_COMPLEXITY>
242

> <PUBCHEM_CACTVS_HBOND_ACCEPTOR>
4

> <PUBCHEM_CACTVS_HBOND_DONOR>
4

> <PUBCHEM_CACTVS_ROTATABLE_BOND>
1

> <PUBCHEM_CACTVS_SUBSKEYS>
AAADcYBjoABAAAAAAAAAAAAAAAAAAWAAAAAgAAAAAAAAAEABgAAAHgAQQAAACAgBlgQFsBbJkACoAQdxdACAgC2XEKABUYGoVECASAhASCAUAIgIAQJAAGAAAAAAAAAAAAAAAAAAAAAAAAAAAAAAAAAAAA==

> <PUBCHEM_IUPAC_OPENEYE_NAME>
2-(sulfanylamino)-1,7-dihydropurin-6-one

> <PUBCHEM_IUPAC_CAS_NAME>
2-(mercaptoamino)-1,7-dihydropurin-6-one

> <PUBCHEM_IUPAC_NAME_MARKUP>
2-(sulfanylamino)-1,7-dihydropurin-6-one

> <PUBCHEM_IUPAC_NAME>
2-(sulfanylamino)-1,7-dihydropurin-6-one

> <PUBCHEM_IUPAC_SYSTEMATIC_NAME>
2-(sulfanylamino)-1,7-dihydropurin-6-one

> <PUBCHEM_IUPAC_TRADITIONAL_NAME>
2-(mercaptoamino)-7H-hypoxanthine

> <PUBCHEM_IUPAC_INCHI>
InChI=1S/C5H5N5OS/c11-4-2-3(7-1-6-2)8-5(9-4)10-12/h1,12H,(H3,6,7,8,9,10,11)

> <PUBCHEM_IUPAC_INCHIKEY>
NUIGWTHJDCDLPS-UHFFFAOYSA-N

> <PUBCHEM_XLOGP3_AA>
-0.2

> <PUBCHEM_EXACT_MASS>
183.02148097

> <PUBCHEM_MOLECULAR_FORMULA>
C5H5N5OS

> <PUBCHEM_MOLECULAR_WEIGHT>
183.19

> <PUBCHEM_OPENEYE_CAN_SMILES>
C1=NC2=C(N1)C(=O)NC(=N2)NS

> <PUBCHEM_OPENEYE_ISO_SMILES>
C1=NC2=C(N1)C(=O)NC(=N2)NS

> <PUBCHEM_CACTVS_TPSA>
83.2

> <PUBCHEM_MONOISOTOPIC_WEIGHT>
183.02148097

> <PUBCHEM_TOTAL_CHARGE>
0

> <PUBCHEM_HEAVY_ATOM_COUNT>
12

> <PUBCHEM_ATOM_DEF_STEREO_COUNT>
0

> <PUBCHEM_ATOM_UDEF_STEREO_COUNT>
0

> <PUBCHEM_BOND_DEF_STEREO_COUNT>
0

> <PUBCHEM_BOND_UDEF_STEREO_COUNT>
0

> <PUBCHEM_ISOTOPIC_ATOM_COUNT>
0

> <PUBCHEM_COMPONENT_COUNT>
1

> <PUBCHEM_CACTVS_TAUTO_COUNT>
-1

> <PUBCHEM_COORDINATE_TYPE>
1
5
255

> <PUBCHEM_BONDANNOTATIONS>
3  12  8
3  8  8
4  10  8
4  11  8
5  11  8
5  9  8
6  12  8
6  9  8
8  10  8
8  9  8

$$$$
