137183582
  -OEChem-02292422592D

 16 17  0     0  0  0  0  0  0999 V2000
    2.5369   -2.0000    0.0000 Br  0  0  0  0  0  0  0  0  0  0  0  0
    4.2690    2.0000    0.0000 O   0  0  0  0  0  0  0  0  0  0  0  0
    6.0812    0.8047    0.0000 N   0  0  0  0  0  0  0  0  0  0  0  0
    3.4030    0.5000    0.0000 N   0  0  0  0  0  0  0  0  0  0  0  0
    4.2690   -1.0000    0.0000 N   0  0  0  0  0  0  0  0  0  0  0  0
    6.0812   -0.8047    0.0000 N   0  0  0  0  0  0  0  0  0  0  0  0
    2.5369   -1.0000    0.0000 N   0  0  0  0  0  0  0  0  0  0  0  0
    5.1350    0.5000    0.0000 C   0  0  0  0  0  0  0  0  0  0  0  0
    5.1350   -0.5000    0.0000 C   0  0  0  0  0  0  0  0  0  0  0  0
    4.2690    1.0000    0.0000 C   0  0  0  0  0  0  0  0  0  0  0  0
    3.4030   -0.5000    0.0000 C   0  0  0  0  0  0  0  0  0  0  0  0
    6.6648    0.0000    0.0000 C   0  0  0  0  0  0  0  0  0  0  0  0
    2.8660    0.8100    0.0000 H   0  0  0  0  0  0  0  0  0  0  0  0
    6.2738    1.3940    0.0000 H   0  0  0  0  0  0  0  0  0  0  0  0
    7.2848    0.0000    0.0000 H   0  0  0  0  0  0  0  0  0  0  0  0
    2.0000   -0.6900    0.0000 H   0  0  0  0  0  0  0  0  0  0  0  0
  1  7  1  0  0  0  0
  2 10  2  0  0  0  0
  3  8  1  0  0  0  0
  3 12  1  0  0  0  0
  3 14  1  0  0  0  0
  4 10  1  0  0  0  0
  4 11  1  0  0  0  0
  4 13  1  0  0  0  0
  5  9  1  0  0  0  0
  5 11  2  0  0  0  0
  6  9  1  0  0  0  0
  6 12  2  0  0  0  0
  7 11  1  0  0  0  0
  7 16  1  0  0  0  0
  8  9  2  0  0  0  0
  8 10  1  0  0  0  0
 12 15  1  0  0  0  0
M  END
> <PUBCHEM_COMPOUND_CID>
137183582

> <PUBCHEM_COMPOUND_CANONICALIZED>
1

> <PUBCHEM_CACTVS_COMPLEXITY>
242

> <PUBCHEM_CACTVS_HBOND_ACCEPTOR>
3

> <PUBCHEM_CACTVS_HBOND_DONOR>
3

> <PUBCHEM_CACTVS_ROTATABLE_BOND>
1

> <PUBCHEM_CACTVS_SUBSKEYS>
AAADcYBjoAAAEAAAAAAAAAAAAAAAAWAAAAAgAAAAAAAAAEABgAAAHgAQEAAACAgBlgQFsBbJkACoAQdxdACAgC2XEKABUYGoVECASAhASCAUAIgIAQJAAGAAAAAAAAAAAAAAAAAAAAAAAAAAAAAAAAAAAA==

> <PUBCHEM_IUPAC_OPENEYE_NAME>
2-(bromoamino)-1,7-dihydropurin-6-one

> <PUBCHEM_IUPAC_CAS_NAME>
2-(bromoamino)-1,7-dihydropurin-6-one

> <PUBCHEM_IUPAC_NAME_MARKUP>
2-(bromoamino)-1,7-dihydropurin-6-one

> <PUBCHEM_IUPAC_NAME>
2-(bromoamino)-1,7-dihydropurin-6-one

> <PUBCHEM_IUPAC_SYSTEMATIC_NAME>
2-(bromanylamino)-1,7-dihydropurin-6-one

> <PUBCHEM_IUPAC_TRADITIONAL_NAME>
2-(bromoamino)-7H-hypoxanthine

> <PUBCHEM_IUPAC_INCHI>
InChI=1S/C5H4BrN5O/c6-11-5-9-3-2(4(12)10-5)7-1-8-3/h1H,(H3,7,8,9,10,11,12)

> <PUBCHEM_IUPAC_INCHIKEY>
UZPRIAVFVVRDOG-UHFFFAOYSA-N

> <PUBCHEM_XLOGP3_AA>
-0.1

> <PUBCHEM_EXACT_MASS>
228.95992

> <PUBCHEM_MOLECULAR_FORMULA>
C5H4BrN5O

> <PUBCHEM_MOLECULAR_WEIGHT>
230.02

> <PUBCHEM_OPENEYE_CAN_SMILES>
C1=NC2=C(N1)C(=O)NC(=N2)NBr

> <PUBCHEM_OPENEYE_ISO_SMILES>
C1=NC2=C(N1)C(=O)NC(=N2)NBr

> <PUBCHEM_CACTVS_TPSA>
82.2

> <PUBCHEM_MONOISOTOPIC_WEIGHT>
228.95992

> <PUBCHEM_TOTAL_CHARGE>
0

> <PUBCHEM_HEAVY_ATOM_COUNT>
12

> <PUBCHEM_ATOM_DEF_STEREO_COUNT>
0

> <PUBCHEM_ATOM_UDEF_STEREO_COUNT>
0

> <PUBCHEM_BOND_DEF_STEREO_COUNT>
0

> <PUBCHEM_BOND_UDEF_STEREO_COUNT>
0

> <PUBCHEM_ISOTOPIC_ATOM_COUNT>
0

> <PUBCHEM_COMPONENT_COUNT>
1

> <PUBCHEM_CACTVS_TAUTO_COUNT>
-1

> <PUBCHEM_COORDINATE_TYPE>
1
5
255

> <PUBCHEM_BONDANNOTATIONS>
3  12  8
3  8  8
4  10  8
4  11  8
5  11  8
5  9  8
6  12  8
6  9  8
8  10  8
8  9  8

$$$$
