192963
  -OEChem-02292422592D

 15 16  0     0  0  0  0  0  0999 V2000
    2.8660   -1.8450    0.0000 O   0  0  0  0  0  0  0  0  0  0  0  0
    2.8660    2.1550    0.0000 O   0  0  0  0  0  0  0  0  0  0  0  0
    2.8660   -0.8450    0.0000 N   0  0  0  0  0  0  0  0  0  0  0  0
    4.6783    0.9597    0.0000 N   0  0  0  0  0  0  0  0  0  0  0  0
    4.6783   -0.6497    0.0000 N   0  0  0  0  0  0  0  0  0  0  0  0
    2.0000    0.6550    0.0000 N   0  0  0  0  0  0  0  0  0  0  0  0
    3.7320    0.6550    0.0000 C   0  0  0  0  0  0  0  0  0  0  0  0
    3.7320   -0.3450    0.0000 C   0  0  0  0  0  0  0  0  0  0  0  0
    2.8660    1.1550    0.0000 C   0  0  0  0  0  0  0  0  0  0  0  0
    5.2619    0.1550    0.0000 C   0  0  0  0  0  0  0  0  0  0  0  0
    2.0000   -0.3450    0.0000 C   0  0  0  0  0  0  0  0  0  0  0  0
    4.8709    1.5490    0.0000 H   0  0  0  0  0  0  0  0  0  0  0  0
    5.8819    0.1550    0.0000 H   0  0  0  0  0  0  0  0  0  0  0  0
    1.4631   -0.6550    0.0000 H   0  0  0  0  0  0  0  0  0  0  0  0
    2.3291   -2.1550    0.0000 H   0  0  0  0  0  0  0  0  0  0  0  0
  1  3  1  0  0  0  0
  1 15  1  0  0  0  0
  2  9  2  0  0  0  0
  3  8  1  0  0  0  0
  3 11  1  0  0  0  0
  4  7  1  0  0  0  0
  4 10  1  0  0  0  0
  4 12  1  0  0  0  0
  5  8  1  0  0  0  0
  5 10  2  0  0  0  0
  6  9  1  0  0  0  0
  6 11  2  0  0  0  0
  7  8  2  0  0  0  0
  7  9  1  0  0  0  0
 10 13  1  0  0  0  0
 11 14  1  0  0  0  0
M  END
> <PUBCHEM_COMPOUND_CID>
192963

> <PUBCHEM_COMPOUND_CANONICALIZED>
1

> <PUBCHEM_CACTVS_COMPLEXITY>
217

> <PUBCHEM_CACTVS_HBOND_ACCEPTOR>
3

> <PUBCHEM_CACTVS_HBOND_DONOR>
2

> <PUBCHEM_CACTVS_ROTATABLE_BOND>
0

> <PUBCHEM_CACTVS_SUBSKEYS>
AAADcYBjsAAAAAAAAAAAAAAAAAAAAWAAAAAgAAAAAAAAAEABgAAAHgAUCAAACAgBlgQFsBbZkACoAQdxdACAgC2XEKAhUYGoVECASAhASCAUAIAIAAJAAGAAAAAAAAAAAAAAAAAAAAAAAAAAAAAAAAAAAA==

> <PUBCHEM_IUPAC_OPENEYE_NAME>
3-hydroxy-7H-purin-6-one

> <PUBCHEM_IUPAC_CAS_NAME>
3-hydroxy-7H-purin-6-one

> <PUBCHEM_IUPAC_NAME_MARKUP>
3-hydroxy-7<I>H</I>-purin-6-one

> <PUBCHEM_IUPAC_NAME>
3-hydroxy-7H-purin-6-one

> <PUBCHEM_IUPAC_SYSTEMATIC_NAME>
3-oxidanyl-7H-purin-6-one

> <PUBCHEM_IUPAC_TRADITIONAL_NAME>
3-hydroxy-7H-purin-6-one

> <PUBCHEM_IUPAC_INCHI>
InChI=1S/C5H4N4O2/c10-5-3-4(7-1-6-3)9(11)2-8-5/h1-2,11H,(H,6,7)

> <PUBCHEM_IUPAC_INCHIKEY>
RVVZOZMPKROZAR-UHFFFAOYSA-N

> <PUBCHEM_XLOGP3_AA>
-0.8

> <PUBCHEM_EXACT_MASS>
152.03342538

> <PUBCHEM_MOLECULAR_FORMULA>
C5H4N4O2

> <PUBCHEM_MOLECULAR_WEIGHT>
152.11

> <PUBCHEM_OPENEYE_CAN_SMILES>
C1=NC2=C(N1)C(=O)N=CN2O

> <PUBCHEM_OPENEYE_ISO_SMILES>
C1=NC2=C(N1)C(=O)N=CN2O

> <PUBCHEM_CACTVS_TPSA>
81.6

> <PUBCHEM_MONOISOTOPIC_WEIGHT>
152.03342538

> <PUBCHEM_TOTAL_CHARGE>
0

> <PUBCHEM_HEAVY_ATOM_COUNT>
11

> <PUBCHEM_ATOM_DEF_STEREO_COUNT>
0

> <PUBCHEM_ATOM_UDEF_STEREO_COUNT>
0

> <PUBCHEM_BOND_DEF_STEREO_COUNT>
0

> <PUBCHEM_BOND_UDEF_STEREO_COUNT>
0

> <PUBCHEM_ISOTOPIC_ATOM_COUNT>
0

> <PUBCHEM_COMPONENT_COUNT>
1

> <PUBCHEM_CACTVS_TAUTO_COUNT>
-1

> <PUBCHEM_COORDINATE_TYPE>
1
5
255

> <PUBCHEM_BONDANNOTATIONS>
3  11  8
3  8  8
4  10  8
4  7  8
5  10  8
5  8  8
6  11  8
6  9  8
7  8  8
7  9  8

$$$$
