70765
  -OEChem-02292422582D

 17 18  0     0  0  0  0  0  0999 V2000
    3.7320    1.5000    0.0000 O   0  0  0  0  0  0  0  0  0  0  0  0
    2.8660   -0.0000    0.0000 N   0  0  0  0  0  0  0  0  0  0  0  0
    5.5443    0.3047    0.0000 N   0  0  0  0  0  0  0  0  0  0  0  0
    3.7320   -1.5000    0.0000 N   0  0  0  0  0  0  0  0  0  0  0  0
    5.5443   -1.3047    0.0000 N   0  0  0  0  0  0  0  0  0  0  0  0
    4.5981   -0.0000    0.0000 C   0  0  0  0  0  0  0  0  0  0  0  0
    3.7320    0.5000    0.0000 C   0  0  0  0  0  0  0  0  0  0  0  0
    4.5981   -1.0000    0.0000 C   0  0  0  0  0  0  0  0  0  0  0  0
    2.8660   -1.0000    0.0000 C   0  0  0  0  0  0  0  0  0  0  0  0
    2.0000    0.5000    0.0000 C   0  0  0  0  0  0  0  0  0  0  0  0
    6.1279   -0.5000    0.0000 C   0  0  0  0  0  0  0  0  0  0  0  0
    5.7369    0.8941    0.0000 H   0  0  0  0  0  0  0  0  0  0  0  0
    2.3291   -1.3100    0.0000 H   0  0  0  0  0  0  0  0  0  0  0  0
    2.3100    1.0369    0.0000 H   0  0  0  0  0  0  0  0  0  0  0  0
    1.4631    0.8100    0.0000 H   0  0  0  0  0  0  0  0  0  0  0  0
    1.6900   -0.0369    0.0000 H   0  0  0  0  0  0  0  0  0  0  0  0
    6.7479   -0.5000    0.0000 H   0  0  0  0  0  0  0  0  0  0  0  0
  1  7  2  0  0  0  0
  2  7  1  0  0  0  0
  2  9  1  0  0  0  0
  2 10  1  0  0  0  0
  3  6  1  0  0  0  0
  3 11  1  0  0  0  0
  3 12  1  0  0  0  0
  4  8  1  0  0  0  0
  4  9  2  0  0  0  0
  5  8  1  0  0  0  0
  5 11  2  0  0  0  0
  6  7  1  0  0  0  0
  6  8  2  0  0  0  0
  9 13  1  0  0  0  0
 10 14  1  0  0  0  0
 10 15  1  0  0  0  0
 10 16  1  0  0  0  0
 11 17  1  0  0  0  0
M  END
> <PUBCHEM_COMPOUND_CID>
70765

> <PUBCHEM_COMPOUND_CANONICALIZED>
1

> <PUBCHEM_CACTVS_COMPLEXITY>
215

> <PUBCHEM_CACTVS_HBOND_ACCEPTOR>
3

> <PUBCHEM_CACTVS_HBOND_DONOR>
1

> <PUBCHEM_CACTVS_ROTATABLE_BOND>
0

> <PUBCHEM_CACTVS_SUBSKEYS>
AAADcYBjoAAAAAAAAAAAAAAAAAAAAWAAAAAgAAAAAAAAAEABgAAAHgAQAAAACAgBlgQHsBfJkACoAQdxdACAgC2XEKABUYGoVECASAhASCAUAIgIAgJAAGAAAAAAAAAAAAAAAAAAAAAAAAAAAAAAAAAAAA==

> <PUBCHEM_IUPAC_OPENEYE_NAME>
1-methyl-7H-purin-6-one

> <PUBCHEM_IUPAC_CAS_NAME>
1-methyl-7H-purin-6-one

> <PUBCHEM_IUPAC_NAME_MARKUP>
1-methyl-7<I>H</I>-purin-6-one

> <PUBCHEM_IUPAC_NAME>
1-methyl-7H-purin-6-one

> <PUBCHEM_IUPAC_SYSTEMATIC_NAME>
1-methyl-7H-purin-6-one

> <PUBCHEM_IUPAC_TRADITIONAL_NAME>
1-methyl-7H-purin-6-one

> <PUBCHEM_IUPAC_INCHI>
InChI=1S/C6H6N4O/c1-10-3-9-5-4(6(10)11)7-2-8-5/h2-3H,1H3,(H,7,8)

> <PUBCHEM_IUPAC_INCHIKEY>
KIQMCGMHGVXDFW-UHFFFAOYSA-N

> <PUBCHEM_XLOGP3_AA>
-0.3

> <PUBCHEM_EXACT_MASS>
150.05416083

> <PUBCHEM_MOLECULAR_FORMULA>
C6H6N4O

> <PUBCHEM_MOLECULAR_WEIGHT>
150.14

> <PUBCHEM_OPENEYE_CAN_SMILES>
CN1C=NC2=C(C1=O)NC=N2

> <PUBCHEM_OPENEYE_ISO_SMILES>
CN1C=NC2=C(C1=O)NC=N2

> <PUBCHEM_CACTVS_TPSA>
61.4

> <PUBCHEM_MONOISOTOPIC_WEIGHT>
150.05416083

> <PUBCHEM_TOTAL_CHARGE>
0

> <PUBCHEM_HEAVY_ATOM_COUNT>
11

> <PUBCHEM_ATOM_DEF_STEREO_COUNT>
0

> <PUBCHEM_ATOM_UDEF_STEREO_COUNT>
0

> <PUBCHEM_BOND_DEF_STEREO_COUNT>
0

> <PUBCHEM_BOND_UDEF_STEREO_COUNT>
0

> <PUBCHEM_ISOTOPIC_ATOM_COUNT>
0

> <PUBCHEM_COMPONENT_COUNT>
1

> <PUBCHEM_CACTVS_TAUTO_COUNT>
-1

> <PUBCHEM_COORDINATE_TYPE>
1
5
255

> <PUBCHEM_BONDANNOTATIONS>
2  7  8
2  9  8
3  11  8
3  6  8
4  8  8
4  9  8
5  11  8
5  8  8
6  7  8
6  8  8

$$$$
